py_fx_tools_dss/IMEX_to_DSS/xlsx_DSS_xlsx_mod/Examples/13NodeIEEE/Master_default.dss
Clear

New Circuit.default

Redirect Voltagebases_default.dss
Redirect Capacitor_default.dss
Redirect Line_default.dss
Redirect Transformer_default.dss
Redirect Load_default.dss
Redirect RegControl_default.dss
Redirect GrowthShape_default.dss
Redirect LineCode_default.dss
Redirect LoadShape_default.dss
Redirect Spectrum_default.dss
Redirect TCC_Curve_default.dss
Redirect Vsource_default.dss

LatLongCoords Buscoords_default.csv

solve